Pozdravljeni,   podajam prijavo zoper TELEMACH d.o.o., s sedežem na naslovu Brnčičeva ulica 49A, 1231  Ljubljana - Črnuče, matična številka 5692229000, davčna številka:  SI66863627.   V nedeljo 17.6.2018 ob 21.00 je  Telemach izvajal diskriminacijo.  Blokirali so signal televizije HRT,  medtem pa se svetovno prvenstvo lahko gleda na kanalu ZDF in TV SLO. To delajo stalno v času svetovnega prvenstva v nogometu. Blokirajo signal v času tekme in tudi v času oddaj, ki so pred tekmo.   
Vsi  vemo da se gre tu zaradi reklam, ker RTV želi da gledalci gledajo  njihov kanal. RTV na HTV pošlje zahtevo, potem pa HTV to zahtevo pošlje  na Telemach, da izgleda normalno.
 